REMARK  12 active torsions:
REMARK  status: ('A' for Active; 'I' for Inactive)
REMARK    1  A    between atoms: C1_2  and  C6_10 
REMARK    2  A    between atoms: C3_4  and  O2_9 
REMARK    3  A    between atoms: C4_5  and  O1_8 
REMARK    4  A    between atoms: C5_6  and  O_7 
REMARK    5  A    between atoms: C10_15  and  O4_20 
REMARK    6  A    between atoms: C12_17  and  O9_32 
REMARK    7  A    between atoms: C14_19  and  O10_33 
REMARK    8  A    between atoms: O4_20  and  C15_21 
REMARK    9  A    between atoms: C15_21  and  C16_23 
REMARK   10  A    between atoms: C18_25  and  O6_29 
REMARK   11  A    between atoms: C19_26  and  O7_30 
REMARK   12  A    between atoms: C20_27  and  O8_31 
ROOT
ATOM      1  C6  LIG    62       6.980  14.430  64.800  1.00  0.00     0.192 C 
ATOM      2  O3  LIG    62       6.000  14.440  65.860  1.00  0.00    -0.338 OA
ATOM      3  C7  LIG    62       4.700  14.700  65.480  1.00  0.00     0.081 A 
ATOM      4  C8  LIG    62       4.310  15.060  64.190  1.00  0.00     0.011 A 
ATOM      5  C9  LIG    62       5.340  15.180  63.100  1.00  0.00     0.080 C 
ATOM      6  C10 LIG    62       6.710  15.490  63.710  1.00  0.00     0.170 C 
ATOM      7  C11 LIG    62       3.770  14.670  66.530  1.00  0.00     0.074 A 
ATOM      8  C12 LIG    62       2.440  14.980  66.270  1.00  0.00     0.071 A 
ATOM      9  C13 LIG    62       2.020  15.300  64.990  1.00  0.00     0.073 A 
ATOM     10  C14 LIG    62       2.950  15.330  63.960  1.00  0.00     0.077 A 
ENDROOT
BRANCH   6  11
ATOM     11  O4  LIG    62       6.670  16.800  64.330  1.00  0.00    -0.309 OA
BRANCH  11  12
ATOM     12  C15 LIG    62       6.760  17.870  63.510  1.00  0.00     0.294 C 
ATOM     13  O5  LIG    62       6.980  17.850  62.320  1.00  0.00    -0.259 OA
BRANCH  12  14
ATOM     14  C16 LIG    62       6.500  19.100  64.300  1.00  0.00     0.045 A 
ATOM     15  C17 LIG    62       5.760  19.050  65.500  1.00  0.00     0.057 A 
ATOM     16  C18 LIG    62       5.530  20.220  66.210  1.00  0.00     0.102 A 
ATOM     17  C19 LIG    62       6.020  21.440  65.730  1.00  0.00     0.132 A 
ATOM     18  C20 LIG    62       6.730  21.480  64.530  1.00  0.00     0.102 A 
ATOM     19  C21 LIG    62       6.980  20.330  63.810  1.00  0.00     0.057 A 
BRANCH  16  20
ATOM     20  O6  LIG    62       4.820  20.240  67.380  1.00  0.00    -0.358 OA
ATOM     21  H13 LIG    62       4.520  19.330  67.570  1.00  0.00     0.217 HD
ENDBRANCH  16  20
BRANCH  17  22
ATOM     22  O7  LIG    62       5.780  22.600  66.410  1.00  0.00    -0.356 OA
ATOM     23  H14 LIG    62       5.250  22.330  67.190  1.00  0.00     0.218 HD
ENDBRANCH  17  22
BRANCH  18  24
ATOM     24  O8  LIG    62       7.200  22.680  64.070  1.00  0.00    -0.358 OA
ATOM     25  H15 LIG    62       6.900  23.340  64.740  1.00  0.00     0.217 HD
ENDBRANCH  18  24
ENDBRANCH  12  14
ENDBRANCH  11  12
ENDBRANCH   6  11
BRANCH   1  26
ATOM     26  C1  LIG    62       8.360  14.580  65.430  1.00  0.00    -0.021 A 
ATOM     27  C   LIG    62       9.480  14.040  64.780  1.00  0.00     0.049 A 
ATOM     28  C5  LIG    62      10.750  14.150  65.350  1.00  0.00     0.102 A 
ATOM     29  C4  LIG    62      10.920  14.800  66.570  1.00  0.00     0.132 A 
ATOM     30  C3  LIG    62       9.810  15.350  67.210  1.00  0.00     0.102 A 
ATOM     31  C2  LIG    62       8.540  15.260  66.650  1.00  0.00     0.049 A 
BRANCH  28  32
ATOM     32  O   LIG    62      11.830  13.610  64.710  1.00  0.00    -0.358 OA
ATOM     33  H2  LIG    62      12.580  13.810  65.300  1.00  0.00     0.217 HD
ENDBRANCH  28  32
BRANCH  29  34
ATOM     34  O1  LIG    62      12.160  14.890  67.110  1.00  0.00    -0.356 OA
ATOM     35  H3  LIG    62      12.020  15.380  67.950  1.00  0.00     0.218 HD
ENDBRANCH  29  34
BRANCH  30  36
ATOM     36  O2  LIG    62      10.040  15.980  68.410  1.00  0.00    -0.358 OA
ATOM     37  H4  LIG    62       9.180  16.310  68.730  1.00  0.00     0.217 HD
ENDBRANCH  30  36
ENDBRANCH   1  26
BRANCH  10  38
ATOM     38  O10 LIG    62       2.560  15.650  62.680  1.00  0.00    -0.360 OA
ATOM     39  H17 LIG    62       1.600  15.830  62.680  1.00  0.00     0.217 HD
ENDBRANCH  10  38
BRANCH   8  40
ATOM     40  O9  LIG    62       1.520  15.020  67.270  1.00  0.00    -0.361 OA
ATOM     41  H16 LIG    62       1.960  14.830  68.120  1.00  0.00     0.217 HD
ENDBRANCH   8  40
TORSDOF 12
